/*--------------------------------*- C++ -*----------------------------------*\
  =========                 |
  \\      /  F ield         | OpenFOAM: The Open Source CFD Toolbox
   \\    /   O peration     | Website:  https://openfoam.org
    \\  /    A nd           | Version:  8
     \\/     M anipulation  |
\*---------------------------------------------------------------------------*/
FoamFile
{
    version     2.0;
    format      ascii;
    class       dictionary;
    location    "system";
    object      fvSolution;
}
// * * * * * * * * * * * * * * * * * * * * * * * * * * * * * * * * * * * * * //

solvers
{
    p
    {
        solver          GAMG;
        tolerance       1e-8;
        relTol          1e-8;

        smoother        GaussSeidel;


        nCellsInCoarsestLevel 50;
    }

    pFinal
    {
        $p;
        relTol          1e-2;
    }

    "(U|k|B|nuTilda)"
    {
        solver          smoothSolver;
        smoother        symGaussSeidel;
        tolerance       1e-7;
        relTol          1e-6;
    }
}

PISO
{
    nCorrectors     3;
    nNonOrthogonalCorrectors 0;
}

relaxationFactors
{
    "U.*"               1;
    "nuTilda.*"         1;
}


// ************************************************************************* //
