/*--------------------------------*- C++ -*----------------------------------*\
  =========                 |
  \\      /  F ield         | OpenFOAM: The Open Source CFD Toolbox
   \\    /   O peration     | Website:  https://openfoam.org
    \\  /    A nd           | Version:  8
     \\/     M anipulation  |
\*---------------------------------------------------------------------------*/
FoamFile
{
    version     2.0;
    format      ascii;
    class       volScalarField;
    location    "0";
    object      nuTilda;
}
// * * * * * * * * * * * * * * * * * * * * * * * * * * * * * * * * * * * * * //

dimensions      [0 2 -1 0 0 0 0];

internalField   uniform 0.05;

boundaryField
{
    inlet
    {
        type            fixedValue;
        value           uniform 0.05;
    }
    outlet
    {
        type            inletOutlet;
        inletValue      uniform 0.05;
        value           uniform 0.05;
    }
    car
    {
        type            fixedValue;
        value           uniform 0;
    }
    top
    {
        type            fixedValue;
	value		uniform 0;
    }
    ground
    {
	type		fixedValue;
	value		uniform 0;
    }
    sides
    {
        type            fixedValue;
	value		uniform 0;
    }
    "proc.*"
    {
        type            processor;
    }
}


// ************************************************************************* //
